Circuit: * Z:\home\srussell\Documents\Capacitive Distance Sensor\2polefilter.asc

WARNING: Node VOUT is floating.

WARNING: Less than two connections to node VOUT.  This node is used by C6.
Ignoring empty pin current: Ix(u1:1)
Ignoring empty pin current: Ix(u1:2)
Direct Newton iteration for .op point succeeded.
Date: Mon Jun 04 11:40:35 2007
Total elapsed time: 0.174 seconds.

tnom = 27
temp = 27
method = modified trap
totiter = 1289
traniter = 1286
tranpoints = 644
accept = 644
rejected = 0
trancuriters = 0
matrix size = 9
fillins = 4
solver = Normal

