Circuit: * z:\home\srussell\Documents\Capacitive Distance Sensor\simple_osc.asc

Direct Newton iteration failed to find .op point.  (Use ".option noopiter" to skip.)
Starting Gmin stepping
Gmin = 10
Gmin = 1.07374
Gmin = 0.115292
Gmin = 0.0123794
Gmin = 0.00132923
Gmin = 0.000142725
vernier = 0.5
vernier = 0.25
vernier = 0.125
vernier = 0.0625
vernier = 0.03125
vernier = 0.015625
vernier = 0.0078125
vernier = 0.00390625
vernier = 0.00195313
vernier = 0.000976563
Gmin = 0.000178406
vernier = 0.000488281
Gmin = 0
Gmin stepping failed

Starting source stepping
Could not converge to DC with sources off!
Trouble finding operating point....skipping operating point for Transient analysis.
Date: Wed May 23 22:02:47 2007
Total elapsed time: 0.127 seconds.

tnom = 27
temp = 27
method = modified trap
totiter = 3559
traniter = 1486
tranpoints = 470
accept = 403
rejected = 67
trancuriters = 0
matrix size = 2
fillins = 0
solver = Normal

